/----------------------------------------------------------------------/
/ TELEMAC-2D POSUSO RIVER                                                  /
/----------------------------------------------------------------------/
/
/----------------------------------------------------------------------/
/  FILES                                                               /
/----------------------------------------------------------------------/
/
/ --- GEOMETRY ---
GEOMETRY FILE				= GEO.slf
BOUNDARY CONDITIONS FILE		= BOTTOM_BC.cli
/
/ --- RESULTS ---
RESULTS FILE				= rimac_tel.slf
/
/----------------------------------------------------------------------/
/  GENERAL INFORMATIONS - OUTPUTS                                      /
/----------------------------------------------------------------------/
/
TITLE                                   = 'POSUDO RIVER'
LISTING PRINTOUT PERIOD                 = 1
GRAPHIC PRINTOUT PERIOD                 = 60
VARIABLES FOR GRAPHIC PRINTOUTS         = 'U,V,B,H,S,F'
/
/----------------------------------------------------------------------/
/  TIME DISCRETISATION                                                 /
/----------------------------------------------------------------------/
/
INITIAL TIME SET TO ZERO                = YES
TIME STEP			        = 0.2 
DURATION                                = 43200

/---------------------------------------------------------------------
/ INITIAL CONDITIONS
/---------------------------------------------------------------------
INITIAL DEPTH      = 0.5
INITIAL CONDITIONS = 'CONSTANT DEPTH'

/PREVIOUS COMPUTATION FILE = 'hort_start.slf'
/INITIAL TIME SET TO ZERO  = YES
/CONTINUITY CORRECTION     = YES
/
/---------------------------------------------------------------------
/ BOUNDARY CONDITIONS
/---------------------------------------------------------------------
/
PRESCRIBED FLOWRATES			= 4037.5;-4037.5
/PRESCRIBED ELEVATIONS			= 0; 275
/----------------------------------------------------------------------/
/  BOTTOM FRICTION                                                     /
/----------------------------------------------------------------------/
/
LAW OF BOTTOM FRICTION			= 4 / Manning
FRICTION COEFFICIENT			= 0.024
/
/----------------------------------------------------------------------/
/  TURBULENCE                                                          /
/----------------------------------------------------------------------/
/
TURBULENCE MODEL			= 1
VELOCITY DIFFUSIVITY			= 1.E-6
/
/----------------------------------------------------------------------/
/  TIDAL FLATS                                                         /
/----------------------------------------------------------------------/
/
/TIDAL FLATS                             = YES
/OPTION FOR THE TREATMENT OF TIDAL FLATS = 1  
/
/----------------------------------------------------------------------/
/  NUMERICAL PARAMETERS                                                /
/----------------------------------------------------------------------/
/
MASS-BALANCE				= YES
TREATMENT OF THE LINEAR SYSTEM		= 2
SUPG OPTION                             = 0;0
TYPE OF ADVECTION                       = 14;5
SOLVER                                  = 1
SOLVER OPTION				= 3
MASS-LUMPING ON H			= 1
IMPLICITATION FOR DEPTH			= 1.
IMPLICITATION FOR VELOCITY		= 1.
H CLIPPING				= NO
TREATMENT OF NEGATIVE DEPTHS            = 2
CONTINUITY CORRECTION                   =YES
/
/---------------------------------------------------------------------/
/ END OF FILE
/--------------------------------------------------------------------$
/
&FIN
